72
I
C          7.30827        1.21520        9.16140
C          7.01096        0.25408       10.17410
C          6.29595       -0.84574        9.61110
C          5.50779       -1.43499        7.35247
C          5.30453       -1.23468        5.96610
C          5.69599       -0.19311        5.17044
C          6.37251        0.95257        5.49070
C          6.88291        1.37839        6.73981
C          6.78852        0.72523        7.96111
C          6.15232       -0.59025        8.24575
H          7.83657        2.14593        9.29690
H          7.28442        0.34668       11.21364
H          5.94271       -1.71745       10.13950
H          5.10492       -2.35385        7.76761
H          4.76843       -2.02966        5.45730
H          5.42083       -0.28636        4.12416
H          6.55581        1.62892        4.66100
H          7.39686        2.33485        6.74678
C          2.87394        4.16615       -1.59130
C          3.17125        3.20503       -2.60392
C          3.88626        2.10521       -2.04090
C          4.67442        1.51596        0.21772
C          4.87767        1.71627        1.60410
C          4.48622        2.75784        2.39975
C          3.80970        3.90352        2.07950
C          3.29930        4.32934        0.83037
C          3.39369        3.67618       -0.39092
C          4.02989        2.36070       -0.67556
H          2.34564        5.09688       -1.72680
H          2.89778        3.29763       -3.64345
H          4.23950        1.23350       -2.56930
H          5.07729        0.59710       -0.19743
H          5.41378        0.92129        2.11280
H          4.76138        2.66459        3.44602
H          3.62640        4.57987        2.90920
H          2.78535        5.28580        0.82341
C         -0.98376        4.68670       -1.59130
C         -0.68645        5.64782       -2.60392
C          0.02856        6.74764       -2.04090
C          0.81672        7.33689        0.21772
C          1.01997        7.13658        1.60410
C          0.62852        6.09501        2.39975
C         -0.04800        4.94933        2.07950
C         -0.55840        4.52351        0.83037
C         -0.46401        5.17667       -0.39092
C          0.17219        6.49215       -0.67556
H         -1.51206        3.75597       -1.72680
H         -0.95992        5.55522       -3.64345
H          0.38180        7.61935       -2.56930
H          1.21959        8.25575       -0.19743
H          1.55608        7.93156        2.11280
H          0.90368        6.18826        3.44602
H         -0.23130        4.27298        2.90920
H         -1.07235        3.56705        0.82341
C          3.45057        1.73575        9.16140
C          3.15326        2.69687       10.17410
C          2.43825        3.79669        9.61110
C          1.65009        4.38594        7.35247
C          1.44683        4.18563        5.96610
C          1.83829        3.14406        5.17044
C          2.51481        1.99838        5.49070
C          3.02521        1.57256        6.73981
C          2.93082        2.22572        7.96111
C          2.29462        3.54120        8.24575
H          3.97887        0.80502        9.29690
H          3.42672        2.60427       11.21364
H          2.08501        4.66840       10.13950
H          1.24722        5.30480        7.76761
H          0.91073        4.98061        5.45730
H          1.56313        3.23731        4.12416
H          2.69811        1.32203        4.66100
H          3.53916        0.61610        6.74678
