36

  C     7.299995     1.193957     9.171261
  C     7.010437     0.253169    10.169153
  C     6.312433    -0.826564     9.611381
  C     5.501022    -1.430930     7.344605
  C     5.298780    -1.256146     5.974039
  C     5.692723    -0.193376     5.160411
  C     6.388195     0.970899     5.488903
  C     6.874832     1.378226     6.732564
  C     6.788291     0.726825     7.954211
  C     6.144329    -0.590501     8.241055
  H     7.823436     2.116925     9.306911
  H     7.281322     0.345504    11.201025
  H     5.962307    -1.690459    10.136122
  H     5.104982    -2.338787     7.763036
  H     4.767945    -2.046937     5.478570
  H     5.419776    -0.285374     4.125235
  H     6.574016     1.644981     4.674218
  H     7.385501     2.324346     6.747168
  C     2.882215    -1.756994    -1.601087
  C     3.171774    -2.697783    -2.598978
  C     3.869777    -3.777516    -2.041205
  C     4.681186    -4.381880     0.225572
  C     4.883428    -4.207095     1.596138
  C     4.489485    -3.144324     2.409765
  C     3.794014    -1.980049     2.081271
  C     3.307378    -1.572723     0.837610
  C     3.393919    -2.224125    -0.384037
  C     4.037881    -3.541452    -0.670880
  H     2.358776    -0.834026    -1.736738
  H     2.900889    -2.605449    -3.630851
  H     4.219903    -4.641412    -2.565945
  H     5.077226    -5.289738    -0.192858
  H     5.414262    -4.997886     2.091608
  H     4.762432    -3.236320     3.444942
  H     3.608193    -1.305966     2.895955
  H     2.796709    -0.626603     0.823005
