36

  C     7.299995     1.193957     9.171261
  C     7.010437     0.253169    10.169153
  C     6.312433    -0.826564     9.611381
  C     5.501022    -1.430930     7.344605
  C     5.298780    -1.256146     5.974039
  C     5.692723    -0.193376     5.160411
  C     6.388195     0.970899     5.488903
  C     6.874832     1.378226     6.732564
  C     6.788291     0.726825     7.954211
  C     6.144329    -0.590501     8.241055
  H     7.823436     2.116925     9.306911
  H     7.281322     0.345504    11.201025
  H     5.962307    -1.690459    10.136122
  H     5.104982    -2.338787     7.763036
  H     4.767945    -2.046937     5.478570
  H     5.419776    -0.285374     4.125235
  H     6.574016     1.644981     4.674218
  H     7.385501     2.324346     6.747168
  C    16.161182     4.144907     5.969098
  C    16.450741     3.204117     4.971207
  C    17.148743     2.124384     5.528980
  C    17.960152     1.520020     7.795757
  C    18.162394     1.694805     9.166324
  C    17.768452     2.757576     9.979950
  C    17.072981     3.921851     9.651457
  C    16.586344     4.329177     8.407795
  C    16.672884     3.677775     7.186149
  C    17.316847     2.360448     6.899305
  H    15.637742     5.067874     5.833447
  H    16.179855     3.296451     3.939335
  H    17.498869     1.260488     5.004240
  H    18.356192     0.612162     7.377327
  H    18.693228     0.904014     9.661793
  H    18.041397     2.665580    11.015127
  H    16.887159     4.595935    10.466141
  H    16.075676     5.275297     8.393190
