36

  C     7.299995     1.193957     9.171261
  C     7.010437     0.253169    10.169153
  C     6.312433    -0.826564     9.611381
  C     5.501022    -1.430930     7.344605
  C     5.298780    -1.256146     5.974039
  C     5.692723    -0.193376     5.160411
  C     6.388195     0.970899     5.488903
  C     6.874832     1.378226     6.732564
  C     6.788291     0.726825     7.954211
  C     6.144329    -0.590501     8.241055
  H     7.823436     2.116925     9.306911
  H     7.281322     0.345504    11.201025
  H     5.962307    -1.690459    10.136122
  H     5.104982    -2.338787     7.763036
  H     4.767945    -2.046937     5.478570
  H     5.419776    -0.285374     4.125235
  H     6.574016     1.644981     4.674218
  H     7.385501     2.324346     6.747168
  C    12.863558    -4.707942    16.741446
  C    12.573999    -5.648731    17.739338
  C    11.875995    -6.728464    17.181566
  C    11.064584    -7.332829    14.914790
  C    10.862343    -7.158046    13.544224
  C    11.256285    -6.095276    12.730596
  C    11.951756    -4.931001    13.059087
  C    12.438394    -4.523674    14.302749
  C    12.351853    -5.175075    15.524395
  C    11.707891    -6.492402    15.811240
  H    13.386997    -3.784975    16.877094
  H    12.844884    -5.556396    18.771210
  H    11.525868    -7.592359    17.706306
  H    10.668544    -8.240686    15.333220
  H    10.331507    -7.948837    13.048755
  H    10.983337    -6.187274    11.695419
  H    12.137578    -4.256919    12.244403
  H    12.949063    -3.577554    14.317352
