36

  C     7.299995     1.193957     9.171261
  C     7.010437     0.253169    10.169153
  C     6.312433    -0.826564     9.611381
  C     5.501022    -1.430930     7.344605
  C     5.298780    -1.256146     5.974039
  C     5.692723    -0.193376     5.160411
  C     6.388195     0.970899     5.488903
  C     6.874832     1.378226     6.732564
  C     6.788291     0.726825     7.954211
  C     6.144329    -0.590501     8.241055
  H     7.823436     2.116925     9.306911
  H     7.281322     0.345504    11.201025
  H     5.962307    -1.690459    10.136122
  H     5.104982    -2.338787     7.763036
  H     4.767945    -2.046937     5.478570
  H     5.419776    -0.285374     4.125235
  H     6.574016     1.644981     4.674218
  H     7.385501     2.324346     6.747168
  C     3.957727    -7.095637    13.539369
  C     4.246993    -6.154691    12.541541
  C     4.946056    -5.075527    13.099086
  C     5.758127    -4.471517    15.365721
  C     5.959063    -4.645602    16.736568
  C     5.564433    -5.708005    17.550343
  C     4.870177    -6.872931    17.221588
  C     4.384478    -7.280760    15.977724
  C     4.470374    -6.629012    14.756216
  C     5.114723    -5.311892    14.469290
  H     3.433704    -8.018292    13.403843
  H     3.975017    -6.246440    11.509903
  H     5.296009    -4.211537    12.574383
  H     6.154788    -3.563993    14.947157
  H     6.489322    -3.854503    17.232161
  H     5.836174    -5.615362    18.585779
  H     4.684280    -7.546974    18.036287
  H     3.874545    -8.227274    15.962960
