36

  C     7.299995     1.193957     9.171261
  C     7.010437     0.253169    10.169153
  C     6.312433    -0.826564     9.611381
  C     5.501022    -1.430930     7.344605
  C     5.298780    -1.256146     5.974039
  C     5.692723    -0.193376     5.160411
  C     6.388195     0.970899     5.488903
  C     6.874832     1.378226     6.732564
  C     6.788291     0.726825     7.954211
  C     6.144329    -0.590501     8.241055
  H     7.823436     2.116925     9.306911
  H     7.281322     0.345504    11.201025
  H     5.962307    -1.690459    10.136122
  H     5.104982    -2.338787     7.763036
  H     4.767945    -2.046937     5.478570
  H     5.419776    -0.285374     4.125235
  H     6.574016     1.644981     4.674218
  H     7.385501     2.324346     6.747168
  C    12.303074    -7.095637     5.969186
  C    12.592340    -6.154691     4.971358
  C    13.291403    -5.075527     5.528903
  C    14.103473    -4.471517     7.795537
  C    14.304409    -4.645602     9.166384
  C    13.909779    -5.708004     9.980159
  C    13.215524    -6.872931     9.651404
  C    12.729825    -7.280760     8.407540
  C    12.815721    -6.629012     7.186033
  C    13.460069    -5.311892     6.899107
  H    11.779051    -8.018292     5.833660
  H    12.320364    -6.246440     3.939720
  H    13.641356    -4.211537     5.004200
  H    14.500135    -3.563993     7.376974
  H    14.834668    -3.854503     9.661978
  H    14.181520    -5.615362    11.015595
  H    13.029626    -7.546974    10.466105
  H    12.219892    -8.227274     8.392777
