36

C     7.30826998   1.21519995   9.16139984
C     7.01096010   0.25408000  10.17409992
C     6.29594994  -0.84574002   9.61110020
C     5.50779009  -1.43499005   7.35246992
C     5.30453014  -1.23468006   5.96610022
C     5.69599009  -0.19311000   5.17044020
C     6.37250996   0.95257002   5.49069977
C     6.88290977   1.37838995   6.73980999
C     6.78851986   0.72522998   7.96111012
C     6.15231991  -0.59025002   8.24575043
H     7.83656979   2.14593005   9.29689980
H     7.28442001   0.34667999  11.21364021
H     5.94270992  -1.71745002  10.13949966
H     5.10491991  -2.35384989   7.76761007
H     4.76843023  -2.02965999   5.45730019
H     5.42082977  -0.28636000   4.12415981
H     6.55580997   1.62891996   4.66099977
H     7.39686012   2.33485007   6.74677992
C     3.94985795  -7.11709976  13.54906845
C     4.24716806  -6.15598011  12.53644753
C     4.96217823  -5.05615902  13.09946823
C     5.75033808  -4.46690893  15.35808754
C     5.95358801  -4.66722012  16.74446869
C     5.56213808  -5.70878983  17.54011917
C     4.88561821  -6.85446978  17.21986771
C     4.37521696  -7.28029013  15.97073841
C     4.46960783  -6.62713003  14.74944878
C     5.10580778  -5.31164980  14.46480846
H     3.42155790  -8.04782963  13.41356754
H     3.97369790  -6.24857998  11.49691868
H     5.31541777  -4.18445015  12.57106876
H     6.15320778  -3.54804993  14.94293880
H     6.48969793  -3.87224007  17.25316811
H     5.83729792  -5.61554003  18.58638763
H     4.70231819  -7.53081894  18.04956818
H     3.86126804  -8.23674965  15.96377754
