36

C     7.30826998   1.21519995   9.16139984
C     7.01096010   0.25408000  10.17409992
C     6.29594994  -0.84574002   9.61110020
C     5.50779009  -1.43499005   7.35246992
C     5.30453014  -1.23468006   5.96610022
C     5.69599009  -0.19311000   5.17044020
C     6.37250996   0.95257002   5.49069977
C     6.88290977   1.37838995   6.73980999
C     6.78851986   0.72522998   7.96111012
C     6.15231991  -0.59025002   8.24575043
H     7.83656979   2.14593005   9.29689980
H     7.28442001   0.34667999  11.21364021
H     5.94270992  -1.71745002  10.13949966
H     5.10491991  -2.35384989   7.76761007
H     4.76843023  -2.02965999   5.45730019
H     5.42082977  -0.28636000   4.12415981
H     6.55580997   1.62891996   4.66099977
H     7.39686012   2.33485007   6.74677992
C    -2.11299491  -4.16615009   1.59121704
C    -2.41030502  -3.20502996   2.60391617
C    -3.12531495  -2.10521007   2.04091644
C    -3.91347504  -1.51595998  -0.21771622
C    -4.11673498  -1.71626997  -1.60408401
C    -3.72527504  -2.75783992  -2.39974594
C    -3.04875493  -3.90352011  -2.07948303
C    -2.53835511  -4.32933998  -0.83037567
C    -2.63274503  -3.67617989   0.39092636
C    -3.26894498  -2.36069989   0.67556763
H    -1.58469498  -5.09687996   1.72671509
H    -2.13684511  -3.29763007   3.64345551
H    -3.47855496  -1.23350000   2.56931305
H    -4.31634521  -0.59710002   0.19742584
H    -4.65283489  -0.92128998  -2.11288452
H    -4.00043488  -2.66458988  -3.44602585
H    -2.86545491  -4.57987022  -2.90918350
H    -2.02440500  -5.28579998  -0.82340622
