36

C     7.30826998   1.21519995   9.16139984
C     7.01096010   0.25408000  10.17409992
C     6.29594994  -0.84574002   9.61110020
C     5.50779009  -1.43499005   7.35246992
C     5.30453014  -1.23468006   5.96610022
C     5.69599009  -0.19311000   5.17044020
C     6.37250996   0.95257002   5.49069977
C     6.88290977   1.37838995   6.73980999
C     6.78851986   0.72522998   7.96111012
C     6.15231991  -0.59025002   8.24575043
H     7.83656979   2.14593005   9.29689980
H     7.28442001   0.34667999  11.21364021
H     5.94270992  -1.71745002  10.13949966
H     5.10491991  -2.35384989   7.76761007
H     4.76843023  -2.02965999   5.45730019
H     5.42082977  -0.28636000   4.12415981
H     6.55580997   1.62891996   4.66099977
H     7.39686012   2.33485007   6.74677992
C     2.87393999  -1.73574996  -1.59130001
C     3.17125010  -2.69687009  -2.60391998
C     3.88626003  -3.79668999  -2.04089999
C     4.67441988  -4.38594007   0.21772000
C     4.87766981  -4.18562984   1.60409999
C     4.48621988  -3.14405990   2.39974999
C     3.80970001  -1.99837995   2.07949996
C     3.29929996  -1.57255995   0.83037001
C     3.39369011  -2.22571993  -0.39092001
C     4.02989006  -3.54119992  -0.67556000
H     2.34563994  -0.80501997  -1.72679996
H     2.89777994  -2.60426998  -3.64345002
H     4.23950005  -4.66839981  -2.56929994
H     5.07729006  -5.30480003  -0.19743000
H     5.41378021  -4.98060989   2.11279988
H     4.76138020  -3.23730993   3.44601989
H     3.62639999  -1.32202995   2.90919995
H     2.78535008  -0.61610001   0.82340997
