36

C     7.30826998   1.21519995   9.16139984
C     7.01096010   0.25408000  10.17409992
C     6.29594994  -0.84574002   9.61110020
C     5.50779009  -1.43499005   7.35246992
C     5.30453014  -1.23468006   5.96610022
C     5.69599009  -0.19311000   5.17044020
C     6.37250996   0.95257002   5.49069977
C     6.88290977   1.37838995   6.73980999
C     6.78851986   0.72522998   7.96111012
C     6.15231991  -0.59025002   8.24575043
H     7.83656979   2.14593005   9.29689980
H     7.28442001   0.34667999  11.21364021
H     5.94270992  -1.71745002  10.13949966
H     5.10491991  -2.35384989   7.76761007
H     4.76843023  -2.02965999   5.45730019
H     5.42082977  -0.28636000   4.12415981
H     6.55580997   1.62891996   4.66099977
H     7.39686012   2.33485007   6.74677992
C     7.30826998  -4.68669987   9.16139984
C     7.01096010  -5.64782000  10.17409992
C     6.29594994  -6.74764013   9.61110020
C     5.50779009  -7.33689022   7.35246992
C     5.30453014  -7.13657999   5.96610022
C     5.69599009  -6.09500980   5.17044020
C     6.37250996  -4.94932985   5.49069977
C     6.88290977  -4.52350998   6.73980999
C     6.78851986  -5.17667007   7.96111012
C     6.15231991  -6.49214983   8.24575043
H     7.83656979  -3.75597000   9.29689980
H     7.28442001  -5.55522013  11.21364021
H     5.94270992  -7.61934996  10.13949966
H     5.10491991  -8.25574970   7.76761007
H     4.76843023  -7.93156004   5.45730019
H     5.42082977  -6.18826008   4.12415981
H     6.55580997  -4.27298021   4.66099977
H     7.39686012  -3.56704998   6.74677992
