204

S    18.11054039   0.87669998  -2.31010008
C    15.45580006   0.63540000  -1.63479996
C    16.74377060   0.40169999  -1.33039999
C    17.17189980  -0.16730000  -0.11430000
C    16.19160080  -0.56900001   0.80430001
C    14.81630039  -0.35699999   0.52069998
C    13.77480030  -0.73100001   1.40069997
C    12.45540047  -0.45879999   1.11720002
C    12.08549976   0.14880000  -0.10330000
C    13.07129955   0.51279998  -0.98699999
C    14.43630028   0.25520000  -0.72600001
C    18.60261917  -0.17810000   0.03610000
C    19.25642967   0.40939999  -1.08420002
C    20.60891914   0.59680003  -1.13429999
C    10.63059044   0.46880001  -0.35260001
C    10.03421974  -0.15730000  -1.58099997
C     8.61005020   0.26519999  -1.87559998
C     7.99328995  -0.29300001  -3.13820004
C     6.60552979   0.22280000  -3.43889999
C     6.00409985  -0.30770001  -4.69780016
C     4.60780001   0.25139999  -4.96789980
C     3.96510005  -0.29220000  -6.23050022
C     2.56900001   0.25830001  -6.50369978
C     1.91910005  -0.27680001  -7.73880005
H    15.22920036   1.05002999  -2.44819999
H    16.44589043  -0.97939998   1.61099994
H    13.98873043  -1.17589998   2.20045996
H    11.79071045  -0.68045998   1.74431002
H    12.83415985   0.94563001  -1.78647006
H    21.01388931   0.99581999  -1.88328004
H    10.11194992   0.17810000   0.42638999
H    10.53522968   1.44149995  -0.42350000
H    10.05609035  -1.13189995  -1.47723997
H    10.59426022   0.07055000  -2.35195994
H     8.04850960   0.00008000  -1.11765003
H     8.58586979   1.24333000  -1.92965996
H     8.57830048  -0.07680000  -3.89435005
H     7.95521021  -1.26924002  -3.06295991
H     6.01740980  -0.00802000  -2.68936992
H     6.64080000   1.20008004  -3.49686003
H     5.94961977  -1.28473997  -4.63937998
H     6.58809996  -0.08420000  -5.45097017
H     4.03069019   0.04171000  -4.20444012
H     4.66710997   1.22679996  -5.03783989
H     3.91199994  -1.26823997  -6.16160011
H     4.54336023  -0.07988000  -6.99373007
H     1.99749994   0.05351000  -5.73520994
H     2.62781000   1.23354006  -6.57840014
H     1.87846005  -1.24479997  -7.68969011
H     2.43645000  -0.01434000  -8.51661968
H     1.02068996   0.08135000  -7.81209993
S    21.87046051  -0.87669998   2.31010008
C    24.52519989  -0.63540000   1.63479996
C    23.23723030  -0.40169999   1.33039999
C    22.80909920   0.16730000   0.11430000
C    23.78940010   0.56900001  -0.80430001
C    25.16469955   0.35699999  -0.52069998
C    26.20619965   0.73100001  -1.40069997
C    27.52560043   0.45879999  -1.11720002
C    27.89550018  -0.14880000   0.10330000
C    26.90970039  -0.51279998   0.98699999
C    25.54470062  -0.25520000   0.72600001
C    21.37837982   0.17810000  -0.03610000
C    20.72456932  -0.40939999   1.08420002
C    19.37207985  -0.59680003   1.13429999
C    29.35041046  -0.46880001   0.35260001
C    29.94677925   0.15730000   1.58099997
C    31.37095070  -0.26519999   1.87559998
C    31.98771095   0.29300001   3.13820004
C    33.37546921  -0.22280000   3.43889999
C    33.97689819   0.30770001   4.69780016
C    35.37319946  -0.25139999   4.96789980
C    36.01589966   0.29220000   6.23050022
C    37.41199875  -0.25830001   6.50369978
C    38.06190109   0.27680001   7.73880005
H    24.75180054  -1.05002999   2.44819999
H    23.53511047   0.97939998  -1.61099994
H    25.99226952   1.17589998  -2.20045996
H    28.19029045   0.68045998  -1.74431002
H    27.14683914  -0.94563001   1.78647006
H    18.96710968  -0.99581999   1.88328004
H    29.86904907  -0.17810000  -0.42638999
H    29.44577026  -1.44149995   0.42350000
H    29.92490959   1.13189995   1.47723997
H    29.38673973  -0.07055000   2.35195994
H    31.93248940  -0.00008000   1.11765003
H    31.39513016  -1.24333000   1.92965996
H    31.40270042   0.07680000   3.89435005
H    32.02579117   1.26924002   3.06295991
H    33.96358871   0.00802000   2.68936992
H    33.34019852  -1.20008004   3.49686003
H    34.03137970   1.28473997   4.63937998
H    33.39289856   0.08420000   5.45097017
H    35.95030975  -0.04171000   4.20444012
H    35.31388855  -1.22679996   5.03783989
H    36.06900024   1.26823997   6.16160011
H    35.43764114   0.07988000   6.99373007
H    37.98350143  -0.05351000   5.73520994
H    37.35319138  -1.23354006   6.57840014
H    38.10253906   1.24479997   7.68969011
H    37.54455185   0.01434000   8.51661968
H    38.96031189  -0.08135000   7.81209993
S    21.65527916  -2.97860003   5.36579990
C    24.30999947  -3.21989989   4.69049978
C    23.02205086  -3.45359993   4.38609982
C    22.59390068  -4.02260017   3.17000008
C    23.57419968  -4.42430019   2.25139999
C    24.94949913  -4.21229982   2.53500009
C    25.99110031  -4.58629990   1.65499997
C    27.31040001  -4.31409979   1.93850005
C    27.68029976  -3.70650005   3.15899992
C    26.69449997  -3.34249997   4.04269981
C    25.32950020  -3.60010004   3.78169990
C    21.16320992  -4.03340006   3.01959991
C    20.50939941  -3.44589996   4.13980007
C    19.15690994  -3.25850010   4.19000006
C    29.13522911  -3.38649988   3.40829992
C    29.73160934  -4.01259995   4.63670015
C    31.15578079  -3.59010005   4.93130016
C    31.77252960  -4.14830017   6.19390011
C    33.16028976  -3.63249993   6.49450016
C    33.76169968  -4.16300011   7.75349998
C    35.15800095  -3.60389996   8.02359962
C    35.80080032  -4.14750004   9.28619957
C    37.19689941  -3.59699988   9.55939960
C    37.84672928  -4.13210011  10.79450035
H    24.53660011  -2.80526996   5.50390005
H    23.31992912  -4.83470011   1.44470000
H    25.77709961  -5.03119993   0.85522002
H    27.97512054  -4.53575993   1.31138003
H    26.93165970  -2.90967011   4.84216022
H    18.75193024  -2.85947990   4.93896008
H    29.65386963  -3.67720008   2.62929010
H    29.23059082  -2.41380000   3.47919989
H    29.70973015  -4.98719978   4.53291988
H    29.17156029  -3.78474998   5.40763998
H    31.71730995  -3.85522008   4.17332983
H    31.17996025  -2.61196995   4.98535013
H    31.18750000  -3.93210006   6.95002985
H    31.81061935  -5.12453985   6.11863995
H    33.74842072  -3.86332011   5.74504995
H    33.12501907  -2.65522003   6.55254984
H    33.81620026  -5.14003992   7.69506979
H    33.17773056  -3.93950009   8.50666046
H    35.73513031  -3.81359005   7.26011992
H    35.09872055  -2.62849998   8.09352970
H    35.85400009  -5.12353992   9.21728992
H    35.22246933  -3.93517995  10.04940987
H    37.76831818  -3.80179000   8.79090023
H    37.13801956  -2.62175989   9.63407993
H    37.88737106  -5.10010004  10.74536991
H    37.32938004  -3.86964011  11.57229996
H    38.74514008  -3.77395010  10.86777973
S    17.89537048  -4.73199987   0.74559999
C    15.24069977  -4.49069977   1.42089999
C    16.52860069  -4.25699997   1.72520006
C    16.95669937  -3.68799996   2.94140005
C    15.97649956  -3.28629994   3.85990000
C    14.60109997  -3.49830008   3.57640004
C    13.55959988  -3.12430000   4.45639992
C    12.24020004  -3.39650011   4.17280006
C    11.87040043  -4.00409985   2.95239997
C    12.85610008  -4.36810017   2.06870008
C    14.22109985  -4.11049986   2.32969999
C    18.38743973  -3.67720008   3.09170008
C    19.04125023  -4.26469994   1.97150004
C    20.39373970  -4.45209980   1.92139995
C    10.41541958  -4.32410002   2.70309997
C     9.81904030  -3.69799995   1.47469997
C     8.39486980  -4.12050009   1.18009996
C     7.77812004  -3.56229997  -0.08250000
C     6.39035988  -4.07810020  -0.38319999
C     5.78889990  -3.54760003  -1.64209998
C     4.39260006  -4.10669994  -1.91219997
C     3.74990010  -3.56310010  -3.17490005
C     2.35380006  -4.11359978  -3.44799995
C     1.70392001  -3.57850003  -4.68310022
H    15.01410007  -4.90533018   0.60750002
H    16.23072052  -2.87590003   4.66660023
H    13.77355003  -2.67939997   5.25614023
H    11.57553005  -3.17483997   4.79999018
H    12.61898994  -4.80093002   1.26920998
H    20.79871941  -4.85112000   1.17240000
H     9.89678001  -4.03340006   3.48206997
H    10.32005978  -5.29680014   2.63220000
H     9.84092045  -2.72340012   1.57843995
H    10.37909031  -3.92584991   0.70371997
H     7.83334017  -3.85538006   1.93804002
H     8.37069035  -5.09862995   1.12601995
H     8.36310005  -3.77850008  -0.83866000
H     7.74002981  -2.58606005  -0.00727000
H     5.80223989  -3.84728003   0.36632001
H     6.42563009  -5.05537987  -0.44117999
H     5.73444986  -2.57055998  -1.58369994
H     6.37292004  -3.77110004  -2.39528990
H     3.81552005  -3.89701009  -1.14874995
H     4.45193005  -5.08209991  -1.98215997
H     3.69700003  -2.58705997  -3.10592008
H     4.32817984  -3.77541995  -3.93804002
H     1.78233004  -3.90880990  -2.67952991
H     2.41263008  -5.08884001  -3.52271008
H     1.66328001  -2.61050010  -4.63399982
H     2.22127008  -3.84096003  -5.46092987
H     0.80550998  -3.93665004  -4.75642014
