204

S    18.11054039   0.87669998  -2.31010008
C    15.45580006   0.63540000  -1.63479996
C    16.74377060   0.40169999  -1.33039999
C    17.17189980  -0.16730000  -0.11430000
C    16.19160080  -0.56900001   0.80430001
C    14.81630039  -0.35699999   0.52069998
C    13.77480030  -0.73100001   1.40069997
C    12.45540047  -0.45879999   1.11720002
C    12.08549976   0.14880000  -0.10330000
C    13.07129955   0.51279998  -0.98699999
C    14.43630028   0.25520000  -0.72600001
C    18.60261917  -0.17810000   0.03610000
C    19.25642967   0.40939999  -1.08420002
C    20.60891914   0.59680003  -1.13429999
C    10.63059044   0.46880001  -0.35260001
C    10.03421974  -0.15730000  -1.58099997
C     8.61005020   0.26519999  -1.87559998
C     7.99328995  -0.29300001  -3.13820004
C     6.60552979   0.22280000  -3.43889999
C     6.00409985  -0.30770001  -4.69780016
C     4.60780001   0.25139999  -4.96789980
C     3.96510005  -0.29220000  -6.23050022
C     2.56900001   0.25830001  -6.50369978
C     1.91910005  -0.27680001  -7.73880005
H    15.22920036   1.05002999  -2.44819999
H    16.44589043  -0.97939998   1.61099994
H    13.98873043  -1.17589998   2.20045996
H    11.79071045  -0.68045998   1.74431002
H    12.83415985   0.94563001  -1.78647006
H    21.01388931   0.99581999  -1.88328004
H    10.11194992   0.17810000   0.42638999
H    10.53522968   1.44149995  -0.42350000
H    10.05609035  -1.13189995  -1.47723997
H    10.59426022   0.07055000  -2.35195994
H     8.04850960   0.00008000  -1.11765003
H     8.58586979   1.24333000  -1.92965996
H     8.57830048  -0.07680000  -3.89435005
H     7.95521021  -1.26924002  -3.06295991
H     6.01740980  -0.00802000  -2.68936992
H     6.64080000   1.20008004  -3.49686003
H     5.94961977  -1.28473997  -4.63937998
H     6.58809996  -0.08420000  -5.45097017
H     4.03069019   0.04171000  -4.20444012
H     4.66710997   1.22679996  -5.03783989
H     3.91199994  -1.26823997  -6.16160011
H     4.54336023  -0.07988000  -6.99373007
H     1.99749994   0.05351000  -5.73520994
H     2.62781000   1.23354006  -6.57840014
H     1.87846005  -1.24479997  -7.68969011
H     2.43645000  -0.01434000  -8.51661968
H     1.02068996   0.08135000  -7.81209993
S    21.87046051  -0.87669998   2.31010008
C    24.52519989  -0.63540000   1.63479996
C    23.23723030  -0.40169999   1.33039999
C    22.80909920   0.16730000   0.11430000
C    23.78940010   0.56900001  -0.80430001
C    25.16469955   0.35699999  -0.52069998
C    26.20619965   0.73100001  -1.40069997
C    27.52560043   0.45879999  -1.11720002
C    27.89550018  -0.14880000   0.10330000
C    26.90970039  -0.51279998   0.98699999
C    25.54470062  -0.25520000   0.72600001
C    21.37837982   0.17810000  -0.03610000
C    20.72456932  -0.40939999   1.08420002
C    19.37207985  -0.59680003   1.13429999
C    29.35041046  -0.46880001   0.35260001
C    29.94677925   0.15730000   1.58099997
C    31.37095070  -0.26519999   1.87559998
C    31.98771095   0.29300001   3.13820004
C    33.37546921  -0.22280000   3.43889999
C    33.97689819   0.30770001   4.69780016
C    35.37319946  -0.25139999   4.96789980
C    36.01589966   0.29220000   6.23050022
C    37.41199875  -0.25830001   6.50369978
C    38.06190109   0.27680001   7.73880005
H    24.75180054  -1.05002999   2.44819999
H    23.53511047   0.97939998  -1.61099994
H    25.99226952   1.17589998  -2.20045996
H    28.19029045   0.68045998  -1.74431002
H    27.14683914  -0.94563001   1.78647006
H    18.96710968  -0.99581999   1.88328004
H    29.86904907  -0.17810000  -0.42638999
H    29.44577026  -1.44149995   0.42350000
H    29.92490959   1.13189995   1.47723997
H    29.38673973  -0.07055000   2.35195994
H    31.93248940  -0.00008000   1.11765003
H    31.39513016  -1.24333000   1.92965996
H    31.40270042   0.07680000   3.89435005
H    32.02579117   1.26924002   3.06295991
H    33.96358871   0.00802000   2.68936992
H    33.34019852  -1.20008004   3.49686003
H    34.03137970   1.28473997   4.63937998
H    33.39289856   0.08420000   5.45097017
H    35.95030975  -0.04171000   4.20444012
H    35.31388855  -1.22679996   5.03783989
H    36.06900024   1.26823997   6.16160011
H    35.43764114   0.07988000   6.99373007
H    37.98350143  -0.05351000   5.73520994
H    37.35319138  -1.23354006   6.57840014
H    38.10253906   1.24479997   7.68969011
H    37.54455185   0.01434000   8.51661968
H    38.96031189  -0.08135000   7.81209993
S    18.54088974   0.87669998  -8.42150021
C    15.88619995   0.63540000  -7.74620008
C    17.17411995   0.40169999  -7.44180012
C    17.60219955  -0.16730000  -6.22559977
C    16.62199974  -0.56900001  -5.30709982
C    15.24660015  -0.35699999  -5.59070015
C    14.20510006  -0.73100001  -4.71059990
C    12.88570023  -0.45879999  -4.99420023
C    12.51589966   0.14880000  -6.21460009
C    13.50170040   0.51279998  -7.09840012
C    14.86660004   0.25520000  -6.83739996
C    19.03297043  -0.17810000  -6.07530022
C    19.68678093   0.40939999  -7.19549990
C    21.03927040   0.59680003  -7.24560022
C    11.06093979   0.46880001  -6.46400023
C    10.46457005  -0.15730000  -7.69239998
C     9.04039955   0.26519999  -7.98689985
C     8.42364025  -0.29300001  -9.24960041
C     7.03588009   0.22280000  -9.55020046
C     6.43450022  -0.30770001 -10.80920029
C     5.03819990   0.25139999 -11.07929993
C     4.39540005  -0.29220000 -12.34189987
C     2.99930000   0.25830001 -12.61509991
C     2.34945011  -0.27680001 -13.85019970
H    15.65960026   1.05002999  -8.55959988
H    16.87623978  -0.97939998  -4.50040007
H    14.41907978  -1.17589998  -3.91090989
H    12.22105980  -0.68045998  -4.36706018
H    13.26451015   0.94563001  -7.89784002
H    21.44424057   0.99581999  -7.99464989
H    10.54230022   0.17810000  -5.68497992
H    10.96557999   1.44149995  -6.53490019
H    10.48643970  -1.13189995  -7.58861017
H    11.02460957   0.07055000  -8.46333027
H     8.47885990   0.00008000  -7.22901011
H     9.01622009   1.24333000  -8.04102993
H     9.00860023  -0.07680000 -10.00570965
H     8.38556004  -1.26924002  -9.17432022
H     6.44776011  -0.00802000  -8.80072975
H     7.07114983   1.20008004  -9.60822964
H     6.37997007  -1.28473997 -10.75074959
H     7.01844978  -0.08420000 -11.56233978
H     4.46104002   0.04171000 -10.31579971
H     5.09744978   1.22679996 -11.14920998
H     4.34299994  -1.26823997 -12.27297020
H     4.97371006  -0.07988000 -13.10509014
H     2.42785001   0.05351000 -11.84657955
H     3.05816007   1.23354006 -12.68976021
H     2.30881000  -1.24479997 -13.80105019
H     2.86680007  -0.01434000 -14.62798023
H     1.45104003   0.08135000 -13.92346954
S    22.30080986  -0.87669998  -3.80130005
C    24.95549965  -0.63540000  -4.47660017
C    23.66757965  -0.40169999  -4.78090000
C    23.23950005   0.16730000  -5.99709988
C    24.21969986   0.56900001  -6.91559982
C    25.59510040   0.35699999  -6.63210011
C    26.63660049   0.73100001  -7.51210022
C    27.95599937   0.45879999  -7.22849989
C    28.32579994  -0.14880000  -6.00810003
C    27.34000015  -0.51279998  -5.12440014
C    25.97509956  -0.25520000  -5.38530016
C    21.80872917   0.17810000  -6.14739990
C    21.15492058  -0.40939999  -5.02720022
C    19.80242920  -0.59680003  -4.97709990
C    29.78075981  -0.46880001  -5.75869989
C    30.37713051   0.15730000  -4.53039980
C    31.80130005  -0.26519999  -4.23579979
C    32.41806030   0.29300001  -2.97320008
C    33.80582047  -0.22280000  -2.67249990
C    34.40719986   0.30770001  -1.41359997
C    35.80350113  -0.25139999  -1.14339995
C    36.44630051   0.29220000   0.11920000
C    37.84239960  -0.25830001   0.39230001
C    38.49224854   0.27680001   1.62750006
H    25.18210030  -1.05002999  -3.66319990
H    23.96545982   0.97939998  -7.72230005
H    26.42262077   1.17589998  -8.31182957
H    28.62063980   0.68045998  -7.85566998
H    27.57719040  -0.94563001  -4.32489014
H    19.39746094  -0.99581999  -4.22808981
H    30.29939079  -0.17810000  -6.53775978
H    29.87611961  -1.44149995  -5.68779993
H    30.35526085   1.13189995  -4.63413000
H    29.81708908  -0.07055000  -3.75940990
H    32.36283112  -0.00008000  -4.99372005
H    31.82547951  -1.24333000  -4.18170023
H    31.83309937   0.07680000  -2.21702003
H    32.45613861   1.26924002  -3.04840994
H    34.39393997   0.00802000  -3.42199993
H    33.77054977  -1.20008004  -2.61450005
H    34.46173096   1.28473997  -1.47197998
H    33.82324982   0.08420000  -0.66039002
H    36.38066101  -0.04171000  -1.90692997
H    35.74423981  -1.22679996  -1.07351995
H    36.49900055   1.26823997   0.05024000
H    35.86798859   0.07988000   0.88235998
H    38.41384888  -0.05351000  -0.37615001
H    37.78353882  -1.23354006   0.46702999
H    38.53289032   1.24479997   1.57832003
H    37.97489929   0.01434000   2.40525007
H    39.39065933  -0.08135000   1.70072997
