96
frame 0 | Written by MDAnalysis XYZWriter (release 2.1.0)
       S    18.11000    0.88000   -2.31000
       C    15.46000    0.64000   -1.63000
       C    16.74000    0.40000   -1.33000
       C    17.17000   -0.17000   -0.11000
       C    16.19000   -0.57000    0.80000
       C    14.82000   -0.36000    0.52000
       C    13.77000   -0.73000    1.40000
       C    12.46000   -0.46000    1.12000
       C    12.09000    0.15000   -0.10000
       C    13.07000    0.51000   -0.99000
       C    14.44000    0.26000   -0.73000
       C    18.60000   -0.18000    0.04000
       C    19.26000    0.41000   -1.08000
       C    20.61000    0.60000   -1.13000
       C    10.63000    0.47000   -0.35000
       H    10.19591    0.01420   -1.23989
       H    15.23000    1.05000   -2.45000
       H    16.45000   -0.98000    1.61000
       H    13.99000   -1.18000    2.20000
       H    11.79000   -0.68000    1.74000
       H    12.83000    0.95000   -1.79000
       H    21.01000    1.00000   -1.88000
       H    10.11000    0.18000    0.43000
       H    10.54000    1.44000   -0.42000
       S    21.87000   -0.88000    2.31000
       C    24.53000   -0.64000    1.63000
       C    23.24000   -0.40000    1.33000
       C    22.81000    0.17000    0.11000
       C    23.79000    0.57000   -0.80000
       C    25.16000    0.36000   -0.52000
       C    26.21000    0.73000   -1.40000
       C    27.53000    0.46000   -1.12000
       C    27.90000   -0.15000    0.10000
       C    26.91000   -0.51000    0.99000
       C    25.54000   -0.26000    0.73000
       C    21.38000    0.18000   -0.04000
       C    20.72000   -0.41000    1.08000
       C    19.37000   -0.60000    1.13000
       C    29.35000   -0.47000    0.35000
       H    29.78409   -0.01420    1.23989
       H    24.75000   -1.05000    2.45000
       H    23.54000    0.98000   -1.61000
       H    25.99000    1.18000   -2.20000
       H    28.19000    0.68000   -1.74000
       H    27.15000   -0.95000    1.79000
       H    18.97000   -1.00000    1.88000
       H    29.87000   -0.18000   -0.43000
       H    29.45000   -1.44000    0.42000
       S    18.54000    0.88000   -8.42000
       C    15.89000    0.64000   -7.75000
       C    17.17000    0.40000   -7.44000
       C    17.60000   -0.17000   -6.23000
       C    16.62000   -0.57000   -5.31000
       C    15.25000   -0.36000   -5.59000
       C    14.21000   -0.73000   -4.71000
       C    12.89000   -0.46000   -4.99000
       C    12.52000    0.15000   -6.21000
       C    13.50000    0.51000   -7.10000
       C    14.87000    0.26000   -6.84000
       C    19.03000   -0.18000   -6.08000
       C    19.69000    0.41000   -7.20000
       C    21.04000    0.60000   -7.25000
       C    11.06000    0.47000   -6.46000
       H    10.62591    0.01420   -7.34989
       H    15.66000    1.05000   -8.56000
       H    16.88000   -0.98000   -4.50000
       H    14.42000   -1.18000   -3.91000
       H    12.22000   -0.68000   -4.37000
       H    13.26000    0.95000   -7.90000
       H    21.44000    1.00000   -7.99000
       H    10.54000    0.18000   -5.68000
       H    10.97000    1.44000   -6.53000
       S    22.30000   -0.88000   -3.80000
       C    24.96000   -0.64000   -4.48000
       C    23.67000   -0.40000   -4.78000
       C    23.24000    0.17000   -6.00000
       C    24.22000    0.57000   -6.92000
       C    25.60000    0.36000   -6.63000
       C    26.64000    0.73000   -7.51000
       C    27.96000    0.46000   -7.23000
       C    28.33000   -0.15000   -6.01000
       C    27.34000   -0.51000   -5.12000
       C    25.98000   -0.26000   -5.39000
       C    21.81000    0.18000   -6.15000
       C    21.15000   -0.41000   -5.03000
       C    19.80000   -0.60000   -4.98000
       C    29.78000   -0.47000   -5.76000
       H    30.21409   -0.01420   -4.87011
       H    25.18000   -1.05000   -3.66000
       H    23.97000    0.98000   -7.72000
       H    26.42000    1.18000   -8.31000
       H    28.62000    0.68000   -7.86000
       H    27.58000   -0.95000   -4.32000
       H    19.40000   -1.00000   -4.23000
       H    30.30000   -0.18000   -6.54000
       H    29.88000   -1.44000   -5.69000

